147
Ni147             
Ni    0.000000    0.000000    0.000000
Ni    1.763800    1.763800    0.000000
Ni   -1.763800    1.763800    0.000000
Ni    1.763800   -1.763800    0.000000
Ni   -1.763800   -1.763800    0.000000
Ni    1.763800    0.000000    1.763800
Ni   -1.763800    0.000000    1.763800
Ni    0.000000    1.763800    1.763800
Ni    0.000000   -1.763800    1.763800
Ni    1.763800   -0.000000   -1.763800
Ni   -1.763800   -0.000000   -1.763800
Ni    0.000000    1.763800   -1.763800
Ni   -0.000000   -1.763800   -1.763800
Ni    3.527600    0.000000    0.000000
Ni   -3.527600    0.000000    0.000000
Ni    0.000000    3.527600    0.000000
Ni   -0.000000   -3.527600    0.000000
Ni    0.000000    0.000000    3.527600
Ni   -0.000000   -0.000000   -3.527600
Ni    3.527600    1.763800    1.763800
Ni   -3.527600    1.763800    1.763800
Ni    1.763800    3.527600    1.763800
Ni   -1.763800    3.527600    1.763800
Ni    3.527600   -1.763800    1.763800
Ni   -3.527600   -1.763800    1.763800
Ni    1.763800   -3.527600    1.763800
Ni   -1.763800   -3.527600    1.763800
Ni    1.763800    1.763800    3.527600
Ni   -1.763800    1.763800    3.527600
Ni    1.763800   -1.763800    3.527600
Ni   -1.763800   -1.763800    3.527600
Ni    3.527600    1.763800   -1.763800
Ni   -3.527600    1.763800   -1.763800
Ni    1.763800    3.527600   -1.763800
Ni   -1.763800    3.527600   -1.763800
Ni    3.527600   -1.763800   -1.763800
Ni   -3.527600   -1.763800   -1.763800
Ni    1.763800   -3.527600   -1.763800
Ni   -1.763800   -3.527600   -1.763800
Ni    1.763800    1.763800   -3.527600
Ni   -1.763800    1.763800   -3.527600
Ni    1.763800   -1.763800   -3.527600
Ni   -1.763800   -1.763800   -3.527600
Ni    3.527600    3.527600    0.000000
Ni   -3.527600    3.527600    0.000000
Ni    3.527600   -3.527600    0.000000
Ni   -3.527600   -3.527600    0.000000
Ni    3.527600    0.000000    3.527600
Ni   -3.527600    0.000000    3.527600
Ni    0.000000    3.527600    3.527600
Ni    0.000000   -3.527600    3.527600
Ni    3.527600   -0.000000   -3.527600
Ni   -3.527600   -0.000000   -3.527600
Ni    0.000000    3.527600   -3.527600
Ni   -0.000000   -3.527600   -3.527600
Ni    5.291400    1.763800    0.000000
Ni   -5.291400    1.763800    0.000000
Ni    1.763800    5.291400    0.000000
Ni   -1.763800    5.291400    0.000000
Ni    5.291400   -1.763800    0.000000
Ni   -5.291400   -1.763800    0.000000
Ni    1.763800   -5.291400    0.000000
Ni   -1.763800   -5.291400    0.000000
Ni    5.291400    0.000000    1.763800
Ni   -5.291400    0.000000    1.763800
Ni    0.000000    5.291400    1.763800
Ni   -0.000000   -5.291400    1.763800
Ni    1.763800    0.000000    5.291400
Ni   -1.763800    0.000000    5.291400
Ni    0.000000    1.763800    5.291400
Ni    0.000000   -1.763800    5.291400
Ni    5.291400   -0.000000   -1.763800
Ni   -5.291400   -0.000000   -1.763800
Ni    0.000000    5.291400   -1.763800
Ni   -0.000000   -5.291400   -1.763800
Ni    1.763800   -0.000000   -5.291400
Ni   -1.763800   -0.000000   -5.291400
Ni   -0.000000    1.763800   -5.291400
Ni   -0.000000   -1.763800   -5.291400
Ni    3.527600    3.527600    3.527600
Ni   -3.527600    3.527600    3.527600
Ni    3.527600   -3.527600    3.527600
Ni   -3.527600   -3.527600    3.527600
Ni    3.527600    3.527600   -3.527600
Ni   -3.527600    3.527600   -3.527600
Ni    3.527600   -3.527600   -3.527600
Ni   -3.527600   -3.527600   -3.527600
Ni    5.291400    3.527600    1.763800
Ni   -5.291400    3.527600    1.763800
Ni    3.527600    5.291400    1.763800
Ni   -3.527600    5.291400    1.763800
Ni    5.291400   -3.527600    1.763800
Ni   -5.291400   -3.527600    1.763800
Ni    3.527600   -5.291400    1.763800
Ni   -3.527600   -5.291400    1.763800
Ni    5.291400    1.763800    3.527600
Ni   -5.291400    1.763800    3.527600
Ni    1.763800    5.291400    3.527600
Ni   -1.763800    5.291400    3.527600
Ni    5.291400   -1.763800    3.527600
Ni   -5.291400   -1.763800    3.527600
Ni    1.763800   -5.291400    3.527600
Ni   -1.763800   -5.291400    3.527600
Ni    3.527600    1.763800    5.291400
Ni   -3.527600    1.763800    5.291400
Ni    1.763800    3.527600    5.291400
Ni   -1.763800    3.527600    5.291400
Ni    3.527600   -1.763800    5.291400
Ni   -3.527600   -1.763800    5.291400
Ni    1.763800   -3.527600    5.291400
Ni   -1.763800   -3.527600    5.291400
Ni    5.291400    3.527600   -1.763800
Ni   -5.291400    3.527600   -1.763800
Ni    3.527600    5.291400   -1.763800
Ni   -3.527600    5.291400   -1.763800
Ni    5.291400   -3.527600   -1.763800
Ni   -5.291400   -3.527600   -1.763800
Ni    3.527600   -5.291400   -1.763800
Ni   -3.527600   -5.291400   -1.763800
Ni    5.291400    1.763800   -3.527600
Ni   -5.291400    1.763800   -3.527600
Ni    1.763800    5.291400   -3.527600
Ni   -1.763800    5.291400   -3.527600
Ni    5.291400   -1.763800   -3.527600
Ni   -5.291400   -1.763800   -3.527600
Ni    1.763800   -5.291400   -3.527600
Ni   -1.763800   -5.291400   -3.527600
Ni    3.527600    1.763800   -5.291400
Ni   -3.527600    1.763800   -5.291400
Ni    1.763800    3.527600   -5.291400
Ni   -1.763800    3.527600   -5.291400
Ni    3.527600   -1.763800   -5.291400
Ni   -3.527600   -1.763800   -5.291400
Ni    1.763800   -3.527600   -5.291400
Ni   -1.763800   -3.527600   -5.291400
Ni    7.055200    0.000000    0.000000
Ni   -7.055200    0.000000    0.000000
Ni    0.000000    7.055200    0.000000
Ni   -0.000000   -7.055200    0.000000
Ni    0.000000    0.000000    7.055200
Ni   -0.000000   -0.000000   -7.055200
Ni    5.291400    5.291400    0.000000
Ni   -5.291400    5.291400    0.000000
Ni    5.291400   -5.291400    0.000000
Ni   -5.291400   -5.291400    0.000000
Ni    7.055200    1.763800    1.763800
Ni   -7.055200    1.763800    1.763800
