147
COC_O3 lattice constant=3.92
Pt     -5.880000000000000     -5.880000000000000      0.000000000000000
Pt     -5.880000000000000     -3.920000000000000     -1.960000000000000
Pt     -5.880000000000000     -1.960000000000000     -3.920000000000000
Pt     -5.880000000000000     -3.920000000000000      1.960000000000000
Pt     -5.880000000000000     -1.960000000000000      0.000000000000000
Pt     -5.880000000000000     -1.960000000000000      3.920000000000000
Pt     -5.880000000000000     -0.000000000000000     -5.880000000000000
Pt     -5.880000000000000     -0.000000000000000     -1.960000000000000
Pt     -5.880000000000000      1.960000000000000     -3.920000000000000
Pt     -5.880000000000000     -0.000000000000000      1.960000000000000
Pt     -5.880000000000000      1.960000000000000      0.000000000000000
Pt     -5.880000000000000     -0.000000000000000      5.880000000000000
Pt     -5.880000000000000      1.960000000000000      3.920000000000000
Pt     -5.880000000000000      3.920000000000000     -1.960000000000000
Pt     -5.880000000000000      3.920000000000000      1.960000000000000
Pt     -5.880000000000000      5.880000000000000      0.000000000000000
Pt     -3.920000000000000     -5.880000000000000     -1.960000000000000
Pt     -1.960000000000000     -5.880000000000000     -3.920000000000000
Pt     -3.920000000000000     -5.880000000000000      1.960000000000000
Pt     -1.960000000000000     -5.880000000000000      0.000000000000000
Pt     -1.960000000000000     -5.880000000000000      3.920000000000000
Pt     -3.920000000000000     -1.960000000000000     -5.880000000000000
Pt     -1.960000000000000     -3.920000000000000     -5.880000000000000
Pt     -3.920000000000000     -3.920000000000000     -3.920000000000000
Pt     -3.920000000000000     -1.960000000000000     -1.960000000000000
Pt     -1.960000000000000     -3.920000000000000     -1.960000000000000
Pt     -1.960000000000000     -1.960000000000000     -3.920000000000000
Pt     -3.920000000000000     -3.920000000000000      0.000000000000000
Pt     -3.920000000000000     -1.960000000000000      1.960000000000000
Pt     -1.960000000000000     -3.920000000000000      1.960000000000000
Pt     -1.960000000000000     -1.960000000000000      0.000000000000000
Pt     -3.920000000000000     -3.920000000000000      3.920000000000000
Pt     -3.920000000000000     -1.960000000000000      5.880000000000000
Pt     -1.960000000000000     -3.920000000000000      5.880000000000000
Pt     -1.960000000000000     -1.960000000000000      3.920000000000000
Pt     -3.920000000000000      1.960000000000000     -5.880000000000000
Pt     -1.960000000000000     -0.000000000000000     -5.880000000000000
Pt     -3.920000000000000     -0.000000000000000     -3.920000000000000
Pt     -3.920000000000000      1.960000000000000     -1.960000000000000
Pt     -1.960000000000000     -0.000000000000000     -1.960000000000000
Pt     -1.960000000000000      1.960000000000000     -3.920000000000000
Pt     -3.920000000000000     -0.000000000000000      0.000000000000000
Pt     -3.920000000000000      1.960000000000000      1.960000000000000
Pt     -1.960000000000000     -0.000000000000000      1.960000000000000
Pt     -1.960000000000000      1.960000000000000      0.000000000000000
Pt     -3.920000000000000     -0.000000000000000      3.920000000000000
Pt     -3.920000000000000      1.960000000000000      5.880000000000000
Pt     -1.960000000000000     -0.000000000000000      5.880000000000000
Pt     -1.960000000000000      1.960000000000000      3.920000000000000
Pt     -1.960000000000000      3.920000000000000     -5.880000000000000
Pt     -3.920000000000000      3.920000000000000     -3.920000000000000
Pt     -3.920000000000000      5.880000000000000     -1.960000000000000
Pt     -1.960000000000000      3.920000000000000     -1.960000000000000
Pt     -1.960000000000000      5.880000000000000     -3.920000000000000
Pt     -3.920000000000000      3.920000000000000      0.000000000000000
Pt     -3.920000000000000      5.880000000000000      1.960000000000000
Pt     -1.960000000000000      3.920000000000000      1.960000000000000
Pt     -1.960000000000000      5.880000000000000      0.000000000000000
Pt     -3.920000000000000      3.920000000000000      3.920000000000000
Pt     -1.960000000000000      3.920000000000000      5.880000000000000
Pt     -1.960000000000000      5.880000000000000      3.920000000000000
Pt     -0.000000000000000     -5.880000000000000     -5.880000000000000
Pt     -0.000000000000000     -5.880000000000000     -1.960000000000000
Pt      1.960000000000000     -5.880000000000000     -3.920000000000000
Pt     -0.000000000000000     -5.880000000000000      1.960000000000000
Pt      1.960000000000000     -5.880000000000000      0.000000000000000
Pt     -0.000000000000000     -5.880000000000000      5.880000000000000
Pt      1.960000000000000     -5.880000000000000      3.920000000000000
Pt     -0.000000000000000     -1.960000000000000     -5.880000000000000
Pt      1.960000000000000     -3.920000000000000     -5.880000000000000
Pt     -0.000000000000000     -3.920000000000000     -3.920000000000000
Pt     -0.000000000000000     -1.960000000000000     -1.960000000000000
Pt      1.960000000000000     -3.920000000000000     -1.960000000000000
Pt      1.960000000000000     -1.960000000000000     -3.920000000000000
Pt     -0.000000000000000     -3.920000000000000      0.000000000000000
Pt     -0.000000000000000     -1.960000000000000      1.960000000000000
Pt      1.960000000000000     -3.920000000000000      1.960000000000000
Pt      1.960000000000000     -1.960000000000000      0.000000000000000
Pt     -0.000000000000000     -3.920000000000000      3.920000000000000
Pt     -0.000000000000000     -1.960000000000000      5.880000000000000
Pt      1.960000000000000     -3.920000000000000      5.880000000000000
Pt      1.960000000000000     -1.960000000000000      3.920000000000000
Pt     -0.000000000000000      1.960000000000000     -5.880000000000000
Pt      1.960000000000000     -0.000000000000000     -5.880000000000000
Pt     -0.000000000000000     -0.000000000000000     -3.920000000000000
Pt     -0.000000000000000      1.960000000000000     -1.960000000000000
Pt      1.960000000000000     -0.000000000000000     -1.960000000000000
Pt      1.960000000000000      1.960000000000000     -3.920000000000000
Pt     -0.000000000000000     -0.000000000000000      0.000000000000000
Pt     -0.000000000000000      1.960000000000000      1.960000000000000
Pt      1.960000000000000     -0.000000000000000      1.960000000000000
Pt      1.960000000000000      1.960000000000000      0.000000000000000
Pt     -0.000000000000000     -0.000000000000000      3.920000000000000
Pt     -0.000000000000000      1.960000000000000      5.880000000000000
Pt      1.960000000000000     -0.000000000000000      5.880000000000000
Pt      1.960000000000000      1.960000000000000      3.920000000000000
Pt     -0.000000000000000      5.880000000000000     -5.880000000000000
Pt      1.960000000000000      3.920000000000000     -5.880000000000000
Pt     -0.000000000000000      3.920000000000000     -3.920000000000000
Pt     -0.000000000000000      5.880000000000000     -1.960000000000000
Pt      1.960000000000000      3.920000000000000     -1.960000000000000
Pt      1.960000000000000      5.880000000000000     -3.920000000000000
Pt     -0.000000000000000      3.920000000000000      0.000000000000000
Pt     -0.000000000000000      5.880000000000000      1.960000000000000
Pt      1.960000000000000      3.920000000000000      1.960000000000000
Pt      1.960000000000000      5.880000000000000      0.000000000000000
Pt     -0.000000000000000      3.920000000000000      3.920000000000000
Pt     -0.000000000000000      5.880000000000000      5.880000000000000
Pt      1.960000000000000      3.920000000000000      5.880000000000000
Pt      1.960000000000000      5.880000000000000      3.920000000000000
Pt      3.920000000000000     -5.880000000000000     -1.960000000000000
Pt      3.920000000000000     -5.880000000000000      1.960000000000000
Pt      5.880000000000000     -5.880000000000000      0.000000000000000
Pt      3.920000000000000     -1.960000000000000     -5.880000000000000
Pt      3.920000000000000     -3.920000000000000     -3.920000000000000
Pt      3.920000000000000     -1.960000000000000     -1.960000000000000
Pt      5.880000000000000     -3.920000000000000     -1.960000000000000
Pt      5.880000000000000     -1.960000000000000     -3.920000000000000
Pt      3.920000000000000     -3.920000000000000      0.000000000000000
Pt      3.920000000000000     -1.960000000000000      1.960000000000000
Pt      5.880000000000000     -3.920000000000000      1.960000000000000
Pt      5.880000000000000     -1.960000000000000      0.000000000000000
Pt      3.920000000000000     -3.920000000000000      3.920000000000000
Pt      3.920000000000000     -1.960000000000000      5.880000000000000
Pt      5.880000000000000     -1.960000000000000      3.920000000000000
Pt      3.920000000000000      1.960000000000000     -5.880000000000000
Pt      5.880000000000000     -0.000000000000000     -5.880000000000000
Pt      3.920000000000000     -0.000000000000000     -3.920000000000000
Pt      3.920000000000000      1.960000000000000     -1.960000000000000
Pt      5.880000000000000     -0.000000000000000     -1.960000000000000
Pt      5.880000000000000      1.960000000000000     -3.920000000000000
Pt      3.920000000000000     -0.000000000000000      0.000000000000000
Pt      3.920000000000000      1.960000000000000      1.960000000000000
Pt      5.880000000000000     -0.000000000000000      1.960000000000000
Pt      5.880000000000000      1.960000000000000      0.000000000000000
Pt      3.920000000000000     -0.000000000000000      3.920000000000000
Pt      3.920000000000000      1.960000000000000      5.880000000000000
Pt      5.880000000000000     -0.000000000000000      5.880000000000000
Pt      5.880000000000000      1.960000000000000      3.920000000000000
Pt      3.920000000000000      3.920000000000000     -3.920000000000000
Pt      3.920000000000000      5.880000000000000     -1.960000000000000
Pt      5.880000000000000      3.920000000000000     -1.960000000000000
Pt      3.920000000000000      3.920000000000000      0.000000000000000
Pt      3.920000000000000      5.880000000000000      1.960000000000000
Pt      5.880000000000000      3.920000000000000      1.960000000000000
Pt      5.880000000000000      5.880000000000000      0.000000000000000
Pt      3.920000000000000      3.920000000000000      3.920000000000000
