131
COC_O3_cut_ori_100_l_1 lattice constant=3.92
Pt     -4.158000000000000      4.158000000000000     -5.162000000000000
Pt     -4.158000000000000      1.386000000000000     -5.162000000000000
Pt     -4.158000000000000     -1.386000000000000     -5.162000000000000
Pt     -1.386000000000000      4.158000000000000     -5.162000000000000
Pt     -1.386000000000000      1.386000000000000     -5.162000000000000
Pt      1.386000000000000      4.158000000000000     -5.162000000000000
Pt     -4.158000000000000     -4.158000000000000     -5.162000000000000
Pt     -1.386000000000000     -1.386000000000000     -5.162000000000000
Pt     -1.386000000000000     -4.158000000000000     -5.162000000000000
Pt      1.386000000000000      1.386000000000000     -5.162000000000000
Pt      1.386000000000000     -1.386000000000000     -5.162000000000000
Pt      4.158000000000000      4.158000000000000     -5.162000000000000
Pt      4.158000000000000      1.386000000000000     -5.162000000000000
Pt      1.386000000000000     -4.158000000000000     -5.162000000000000
Pt      4.158000000000000     -1.386000000000000     -5.162000000000000
Pt      4.158000000000000     -4.158000000000000     -5.162000000000000
Pt     -5.544000000000000      2.772000000000000     -3.202000000000000
Pt     -6.930000000000000      1.386000000000000     -1.242000000000000
Pt     -2.772000000000000      5.544000000000000     -3.202000000000000
Pt     -4.158000000000000      4.158000000000000     -1.242000000000000
Pt     -1.386000000000000      6.930000000000000     -1.242000000000000
Pt     -5.544000000000000     -2.772000000000000     -3.202000000000000
Pt     -6.930000000000000     -1.386000000000000     -1.242000000000000
Pt     -5.544000000000000      0.000000000000000     -3.202000000000000
Pt     -2.772000000000000      0.000000000000000     -3.202000000000000
Pt     -4.158000000000000      1.386000000000000     -1.242000000000000
Pt     -4.158000000000000     -1.386000000000000     -1.242000000000000
Pt     -2.772000000000000      2.772000000000000     -3.202000000000000
Pt     -0.000000000000000      2.772000000000000     -3.202000000000000
Pt     -1.386000000000000      4.158000000000000     -1.242000000000000
Pt     -1.386000000000000      1.386000000000000     -1.242000000000000
Pt     -0.000000000000000      5.544000000000000     -3.202000000000000
Pt      2.772000000000000      5.544000000000000     -3.202000000000000
Pt      1.386000000000000      6.930000000000000     -1.242000000000000
Pt      1.386000000000000      4.158000000000000     -1.242000000000000
Pt     -2.772000000000000     -5.544000000000000     -3.202000000000000
Pt     -4.158000000000000     -4.158000000000000     -1.242000000000000
Pt     -2.772000000000000     -2.772000000000000     -3.202000000000000
Pt     -0.000000000000000     -2.772000000000000     -3.202000000000000
Pt     -1.386000000000000     -1.386000000000000     -1.242000000000000
Pt     -1.386000000000000     -4.158000000000000     -1.242000000000000
Pt     -0.000000000000000      0.000000000000000     -3.202000000000000
Pt      2.772000000000000      0.000000000000000     -3.202000000000000
Pt      1.386000000000000      1.386000000000000     -1.242000000000000
Pt      1.386000000000000     -1.386000000000000     -1.242000000000000
Pt      2.772000000000000      2.772000000000000     -3.202000000000000
Pt      5.544000000000000      2.772000000000000     -3.202000000000000
Pt      4.158000000000000      4.158000000000000     -1.242000000000000
Pt      4.158000000000000      1.386000000000000     -1.242000000000000
Pt     -1.386000000000000     -6.930000000000000     -1.242000000000000
Pt     -0.000000000000000     -5.544000000000000     -3.202000000000000
Pt      2.772000000000000     -5.544000000000000     -3.202000000000000
Pt      1.386000000000000     -4.158000000000000     -1.242000000000000
Pt      1.386000000000000     -6.930000000000000     -1.242000000000000
Pt      2.772000000000000     -2.772000000000000     -3.202000000000000
Pt      5.544000000000000     -2.772000000000000     -3.202000000000000
Pt      4.158000000000000     -1.386000000000000     -1.242000000000000
Pt      4.158000000000000     -4.158000000000000     -1.242000000000000
Pt      5.544000000000000      0.000000000000000     -3.202000000000000
Pt      6.930000000000000      1.386000000000000     -1.242000000000000
Pt      6.930000000000000     -1.386000000000000     -1.242000000000000
Pt     -8.316000000000001      0.000000000000000      0.718000000000000
Pt     -5.544000000000000      2.772000000000000      0.718000000000000
Pt     -6.930000000000000      1.386000000000000      2.678000000000000
Pt     -2.772000000000000      5.544000000000000      0.718000000000000
Pt     -4.158000000000000      4.158000000000000      2.678000000000000
Pt     -0.000000000000000      8.316000000000001      0.718000000000000
Pt     -1.386000000000000      6.930000000000000      2.678000000000000
Pt     -5.544000000000000     -2.772000000000000      0.718000000000000
Pt     -6.930000000000000     -1.386000000000000      2.678000000000000
Pt     -5.544000000000000      0.000000000000000      0.718000000000000
Pt     -2.772000000000000      0.000000000000000      0.718000000000000
Pt     -4.158000000000000      1.386000000000000      2.678000000000000
Pt     -4.158000000000000     -1.386000000000000      2.678000000000000
Pt     -2.772000000000000      2.772000000000000      0.718000000000000
Pt     -0.000000000000000      2.772000000000000      0.718000000000000
Pt     -1.386000000000000      4.158000000000000      2.678000000000000
Pt     -1.386000000000000      1.386000000000000      2.678000000000000
Pt     -0.000000000000000      5.544000000000000      0.718000000000000
Pt      2.772000000000000      5.544000000000000      0.718000000000000
Pt      1.386000000000000      6.930000000000000      2.678000000000000
Pt      1.386000000000000      4.158000000000000      2.678000000000000
Pt     -2.772000000000000     -5.544000000000000      0.718000000000000
Pt     -4.158000000000000     -4.158000000000000      2.678000000000000
Pt     -2.772000000000000     -2.772000000000000      0.718000000000000
Pt     -0.000000000000000     -2.772000000000000      0.718000000000000
Pt     -1.386000000000000     -1.386000000000000      2.678000000000000
Pt     -1.386000000000000     -4.158000000000000      2.678000000000000
Pt     -0.000000000000000      0.000000000000000      0.718000000000000
Pt      2.772000000000000      0.000000000000000      0.718000000000000
Pt      1.386000000000000      1.386000000000000      2.678000000000000
Pt      1.386000000000000     -1.386000000000000      2.678000000000000
Pt      2.772000000000000      2.772000000000000      0.718000000000000
Pt      5.544000000000000      2.772000000000000      0.718000000000000
Pt      4.158000000000000      4.158000000000000      2.678000000000000
Pt      4.158000000000000      1.386000000000000      2.678000000000000
Pt     -0.000000000000000     -8.316000000000001      0.718000000000000
Pt     -1.386000000000000     -6.930000000000000      2.678000000000000
Pt     -0.000000000000000     -5.544000000000000      0.718000000000000
Pt      2.772000000000000     -5.544000000000000      0.718000000000000
Pt      1.386000000000000     -4.158000000000000      2.678000000000000
Pt      1.386000000000000     -6.930000000000000      2.678000000000000
Pt      2.772000000000000     -2.772000000000000      0.718000000000000
Pt      5.544000000000000     -2.772000000000000      0.718000000000000
Pt      4.158000000000000     -1.386000000000000      2.678000000000000
Pt      4.158000000000000     -4.158000000000000      2.678000000000000
Pt      5.544000000000000      0.000000000000000      0.718000000000000
Pt      8.316000000000001      0.000000000000000      0.718000000000000
Pt      6.930000000000000      1.386000000000000      2.678000000000000
Pt      6.930000000000000     -1.386000000000000      2.678000000000000
Pt     -5.544000000000000      2.772000000000000      4.638000000000000
Pt     -2.772000000000000      5.544000000000000      4.638000000000000
Pt     -5.544000000000000     -2.772000000000000      4.638000000000000
Pt     -5.544000000000000      0.000000000000000      4.638000000000000
Pt     -2.772000000000000      0.000000000000000      4.638000000000000
Pt     -2.772000000000000      2.772000000000000      4.638000000000000
Pt     -0.000000000000000      2.772000000000000      4.638000000000000
Pt     -0.000000000000000      5.544000000000000      4.638000000000000
Pt      2.772000000000000      5.544000000000000      4.638000000000000
Pt     -2.772000000000000     -5.544000000000000      4.638000000000000
Pt     -2.772000000000000     -2.772000000000000      4.638000000000000
Pt     -0.000000000000000     -2.772000000000000      4.638000000000000
Pt     -0.000000000000000      0.000000000000000      4.638000000000000
Pt      2.772000000000000      0.000000000000000      4.638000000000000
Pt      2.772000000000000      2.772000000000000      4.638000000000000
Pt      5.544000000000000      2.772000000000000      4.638000000000000
Pt     -0.000000000000000     -5.544000000000000      4.638000000000000
Pt      2.772000000000000     -5.544000000000000      4.638000000000000
Pt      2.772000000000000     -2.772000000000000      4.638000000000000
Pt      5.544000000000000     -2.772000000000000      4.638000000000000
Pt      5.544000000000000      0.000000000000000      4.638000000000000
